examples/national_grid/data/ireland/models/2008/sp2014.raw
<!DOCTYPE HTML PUBLIC "-//W3C//DTD HTML 4.0 Transitional//EN">
<!-- saved from url=(0082)http://www.eirgrid.com/EirgridPortal/uploads/Publications/Summer%20Peak%202014.raw -->
<HTML><HEAD>
<META http-equiv=Content-Type content="text/html; charset=windows-1252">
<META content="MSHTML 6.00.2900.3492" name=GENERATOR></HEAD>
<BODY><PRE>0,   100.00          / PSS/E-30.3    WED, NOV 26 2008  13:27
/ CASE: 2014;  AUTUMN 01/07/2014; FORECAST STATEMENT 2008 -
/ FS08_SEP08 - MEMO  GALLERY_T;  16:38:53  TUESDAY, SEPTEMBE
    10,'F_M_____    ',  38.0000,1,     0.000,     0.000,   1,   3,1.04691, -12.5529,   2
    11,'FMN_LOOP    ',  38.0000,1,     0.000,     0.000,   1,   1,1.03653,  -8.7549,   2
    12,'BEDFORD     ',  38.0000,1,     0.000,     0.000,   1,   1,1.03843,  -9.4523,   2
    13,'M_R_____    ',  38.0000,1,     0.000,     0.000,   1,   1,1.03997, -10.7195,   2
    14,'F_I_____    ',  38.0000,1,     0.000,     0.000,   1,   3,1.02281,  -9.7309,   2
    15,'I_M_____    ',  38.0000,1,     0.000,     0.000,   1,   1,1.03339,  -9.4389,   2
  1021,'ARDNACRU    ', 110.0000,1,     0.000,     0.000,   4,   1,1.04213,  -0.0841,   1
  1041,'AGHADA      ', 110.0000,1,     0.000,     0.000,   3,   1,1.05665,   0.4977,   1
  1042,'AGHADA      ', 220.0000,1,     0.000,     0.000,   3,   1,1.07425,   9.6137,   1
  1052,'AGHADA2     ', 220.0000,1,     0.000,     0.000,   3,   1,1.07500,   3.0775,   1
  1061,'ARIGNA      ', 110.0000,1,     0.000,     0.000,   9,   1,1.06349,  -2.7975,   2
  1062,'AGHADA3     ', 220.0000,1,     0.000,     0.000,   3,   1,1.07500,   3.0775,   1
  1071,'AGANNYGA    ', 110.0000,1,     0.000,     0.000,   4,   1,1.06416,  -0.7071,   1
  1072,'AGHADA4     ', 220.0000,1,     0.000,     0.000,   3,   1,1.07452,   9.6700,   1
  1081,'AHANE       ', 110.0000,1,     0.000,     0.000,   7,   1,1.04536,   0.7691,   2
  1091,'ADAMSTOW    ', 110.0000,1,     0.000,     0.000,   1,   1,1.05839,  -4.3374,   2
  1101,'ANNER       ', 110.0000,1,     0.000,     0.000,   5,   3,1.01074,  -8.1472,   5
  1121,'ARKLOW      ', 110.0000,1,     0.000,     0.000,   6,   1,1.04018,  -6.3191,   1
  1122,'ARKLOW      ', 220.0000,1,     0.000,     0.000,   6,   1,1.05007,  -4.1251,   1
  1131,'ATHEA       ', 110.0000,1,     0.000,     0.000,   7,   5,1.07500,   5.3161,   4
  1141,'ATHLONE     ', 110.0000,1,     0.000,     0.000,   9,   1,1.07689,  -2.7687,   1
  1161,'AUGHINIS    ', 110.0000,1,     0.000,     0.000,   7,   3,1.07500,   5.5712,   1
  1181,'ARVA        ', 110.0000,1,     0.000,     0.000,  10,   1,1.05814,  -6.1317,   1
  1201,'ARTANE      ', 110.0000,1,     0.000,     0.000,   1,   1,1.04005,  -4.9515,   2
  1221,'ATHY        ', 110.0000,1,     0.000,     0.000,   8,   1,1.02625,  -6.6492,   1
  1231,'BALLYWAT    ', 110.0000,1,     0.000,     0.000,   6,   1,1.05221,  -6.0244,   4
  1241,'BALLYCUM    ', 110.0000,1,     0.000,     0.000,   7,   1,1.04056,   1.0812,   1
  1251,'BOOLTIAG    ', 110.0000,1,     0.000,     0.000,   4,   1,1.03115,  -1.2200,   2
  1271,'BALTRASN    ', 110.0000,1,     0.000,     0.000,  10,   1,1.03341,  -5.2573,   1
  1281,'BALLYLIC    ', 110.0000,1,     0.000,     0.000,   3,   1,1.04041,  -0.1175,   2
  1301,'BALLYBEG    ', 110.0000,1,     0.000,     0.000,   6,   1,1.03443,  -7.0800,   1
  1321,'BLAKE       ', 110.0000,1,     0.000,     0.000,   8,   1,1.03018,  -5.8606,   2
  1331,'BALLYCAD    ', 110.0000,1,     0.000,     0.000,   6,   1,1.04983,  -5.3014,   1
  1341,'BINBANE     ', 110.0000,1,     0.000,     0.000,   9,   1,1.03413,  -2.7768,   2
  1351,'BARODA      ', 110.0000,1,     0.000,     0.000,   8,   1,1.03317,  -6.3415,   1
  1361,'BALLYDIN    ', 110.0000,1,     0.000,     0.000,   5,   1,1.01151,  -7.7404,   1
  1371,'BALLYMUR    ', 110.0000,1,     0.000,     0.000,   4,   1,1.02634,  -1.7662,   2
  1381,'BARNAHEL    ', 110.0000,1,     0.000,     0.000,   3,   1,1.05351,  -0.0451,   1
  1391,'BARNAHEL    ', 110.0000,1,     0.000,     0.000,   3,   1,1.05560,  -0.3218,   1
  1401,'BELLACOR    ', 110.0000,1,     0.000,     0.000,   9,   1,1.06404,  -4.8523,   1
  1421,'BLACKROC    ', 110.0000,1,     0.000,     0.000,   1,   2,1.03575,  -6.8718,   2
  1441,'BANDON      ', 110.0000,1,     0.000,     0.000,   3,   1,1.04515,  -1.2423,   1
  1461,'BARRYMOR    ', 110.0000,1,     0.000,     0.000,   5,   1,1.03136,  -2.8926,   2
  1471,'BALGRIFF    ', 110.0000,1,     0.000,     0.000,   1,   1,1.07214,  -2.9904,   2
  1472,'BALGRIFF    ', 220.0000,1,     0.000,     0.000,   1,   1,1.07589,  -0.8272,   2
  1481,'BUTLERST    ', 110.0000,1,     0.000,     0.000,   5,   1,1.01131,  -7.2545,   1
  1501,'BRINNY      ', 110.0000,1,     0.000,     0.000,   3,   1,1.04501,  -1.2507,   5
  1511,'BRINNY      ', 110.0000,1,     0.000,     0.000,   3,   1,1.04502,  -1.2503,   5
  1541,'BANOGE      ', 110.0000,1,     0.000,     0.000,   6,   1,1.03727,  -6.5557,   1
  1571,'BUNBEG      ', 110.0000,1,     0.000,     0.000,   9,   1,1.01484,  -4.0282,   2
  1581,'CABRA       ', 110.0000,1,     0.000,     0.000,   1,   2,1.03858,  -5.0365,   2
  1601,'CLASHAVO    ', 110.0000,1,     0.000,     0.000,   3,   1,1.05942,   1.2482,   1
  1602,'CLASHAVO    ', 220.0000,1,     0.000,     0.000,   3,   1,1.06536,   6.2646,   1
  1611,'CLONKEEN    ', 110.0000,1,     0.000,     0.000,   7,   1,1.06925,   2.4067,   1
  1621,'COOLROE     ', 110.0000,1,     0.000,     0.000,   3,   1,1.04701,  -0.4624,   1
  1631,'CORDERRY    ', 110.0000,1,     0.000,     0.000,   9,   1,1.06654,  -2.4071,   1
  1641,'CASHLA      ', 110.0000,1,     0.000,     0.000,   9,   1,1.07396,  -0.1761,   1
  1642,'CASHLA      ', 220.0000,1,     0.000,     0.000,   9,   1,1.06793,   3.4366,   1
  1651,'CLAHANE     ', 110.0000,1,     0.000,     0.000,   7,   5,1.07451,   4.4881,   1
  1661,'CASTLEBA    ', 110.0000,1,     0.000,     0.000,   9,   1,1.05917,  -4.7621,   1
  1681,'CARRIGAD    ', 110.0000,1,     0.000,     0.000,   3,   1,1.05561,   0.4865,   1
  1691,'CENTRAL     ', 110.0000,1,     0.000,     0.000,   1,   1,1.03709,  -6.7773,   1
  1701,'CATH_FAL    ', 110.0000,1,     0.000,     0.000,   9,   1,1.05000,  -2.8783,   1
  1711,'CROMCAST    ', 110.0000,1,     0.000,     0.000,   1,   1,1.07163,  -3.0492,   1
  1721,'CAHIR       ', 110.0000,1,     0.000,     0.000,   5,   1,1.02468,  -7.2861,   1
  1731,'CROMCAST    ', 110.0000,1,     0.000,     0.000,   1,   1,1.07163,  -3.0492,   1
  1741,'CARRICKM    ', 110.0000,1,     0.000,     0.000,   2,   2,1.03724,  -6.7650,   2
  1742,'CARRICKM    ', 220.0000,1,     0.000,     0.000,   2,   2,1.06945,  -2.2212,   1
  1751,'CARRICKM    ', 110.0000,1,     0.000,     0.000,   2,   1,1.06945,  -2.2212,   1
  1761,'CLIFF       ', 110.0000,1,     0.000,     0.000,   9,   1,1.04991,  -2.7723,   1
  1781,'CASTLEFA    ', 110.0000,1,     0.000,     0.000,   7,   3,1.07464,   5.5536,   5
  1791,'CASTLEFA    ', 110.0000,1,     0.000,     0.000,   7,   3,1.07463,   5.5525,   5
  1801,'COOKSTOW    ', 110.0000,1,     0.000,     0.000,   1,   2,1.06159,  -4.9309,   2
  1811,'COOKSTOW    ', 110.0000,1,     0.000,     0.000,   1,   1,1.02561,  -7.5037,   1
  1821,'CLOON       ', 110.0000,1,     0.000,     0.000,   9,   1,1.06933,  -2.0945,   1
  1831,'CAMUS       ', 110.0000,1,     0.000,     0.000,   9,   1,1.05793,  -1.5539,   2
  1841,'CRANE       ', 110.0000,1,     0.000,     0.000,   6,   1,1.04606,  -6.1595,   1
  1851,'CHERRYWO    ', 110.0000,1,     0.000,     0.000,   2,   1,1.03528,  -6.8630,   1
  1861,'CARICKON    ', 110.0000,1,     0.000,     0.000,   9,   1,1.06207,  -3.3567,   1
  1871,'COLLEGE     ', 110.0000,1,     0.000,     0.000,   2,   1,1.04878,  -3.9480,   1
  1881,'CHARLEVI    ', 110.0000,1,     0.000,     0.000,   3,   1,1.01866,  -0.6058,   1
  1901,'CARLOW      ', 110.0000,1,     0.000,     0.000,   6,   1,1.03043,  -7.0120,   1
  1921,'COW CROS    ', 110.0000,1,     0.000,     0.000,   3,   1,1.04989,  -0.0927,   1
  1931,'CUNGHILL    ', 110.0000,1,     0.000,     0.000,   9,   1,1.06943,  -3.4207,   4
  1941,'CUSHALIN    ', 110.0000,1,     0.000,     0.000,   8,   1,1.07015,  -3.7059,   1
  1951,'CARROWBE    ', 110.0000,1,     0.000,     0.000,   9,   1,1.04681,  -5.4609,   1
  1961,'CASTLEVI    ', 110.0000,1,     0.000,     0.000,   3,   1,1.04452,  -0.2033,   1
  1971,'COOMAGEA    ', 110.0000,1,     0.000,     0.000,   7,   1,1.07131,   2.6537,   4
  1981,'CORRACLA    ', 110.0000,1,     0.000,     0.000,   9,   1,1.05444,  -5.7555,   1
  1991,'CASTLEDO    ', 110.0000,1,     0.000,     0.000,   6,   1,1.05152,  -5.4160,   1
  2001,'CULLENAG    ', 110.0000,1,     0.000,     0.000,   5,   1,1.02125,  -6.5250,   1
  2002,'CULLENAG    ', 220.0000,1,     0.000,     0.000,   5,   1,1.03591,  -3.9414,   1
  2021,'CITY WES    ', 110.0000,1,     0.000,     0.000,   1,   1,1.06070,  -4.9780,   2
  2031,'CHARLESL    ', 110.0000,1,     0.000,     0.000,   6,   1,1.03039,  -7.3728,   1
  2041,'CORDUFF     ', 110.0000,1,     0.000,     0.000,   2,   1,1.04979,  -3.8509,   1
  2042,'CORDUFF     ', 220.0000,1,     0.000,     0.000,   2,   1,1.07417,  -0.4153,   1
  2051,'CORDUFF     ', 110.0000,1,     0.000,     0.000,   2,   1,1.04979,  -3.8509,   1
  2081,'DUNKETTL    ', 110.0000,4,     0.000,     0.000,   3,   1,1.00000,   0.0000,   5
  2101,'DUNDALK     ', 110.0000,1,     0.000,     0.000,  10,   1,1.04954,  -5.4361,   2
  2121,'DRUMLINE    ', 110.0000,1,     0.000,     0.000,   4,   1,1.02761,  -1.7037,   1
  2141,'DUNGARVA    ', 110.0000,1,     0.000,     0.000,   5,   1,1.02190,  -4.8633,   1
  2161,'DOON        ', 110.0000,1,     0.000,     0.000,   5,   1,1.01133,  -8.1113,   1
  2181,'DRYBRIDG    ', 110.0000,1,     0.000,     0.000,  10,   1,1.02231,  -6.2606,   1
  2202,'DUNSTOWN    ', 220.0000,1,     0.000,     0.000,   2,   7,1.07103,  -1.5107,   1
  2204,'DUNSTOWN    ', 380.0000,1,     0.000,     0.000,   2,   1,1.02270,   1.8741,   1
  2221,'DUNMANWA    ', 110.0000,1,     0.000,     0.000,   3,   1,1.04842,  -0.3090,   1
  2231,'DERRYBRI    ', 110.0000,1,     0.000,     0.000,   4,   1,1.06831,  -0.4607,   2
  2241,'DALLOW      ', 110.0000,1,     0.000,     0.000,   5,   1,1.05849,  -2.2213,   2
  2251,'DARDISTO    ', 110.0000,1,     0.000,     0.000,   1,   1,1.07200,  -3.0476,   1
  2261,'DERRYIRO    ', 110.0000,1,     0.000,     0.000,   8,   1,1.04085,  -5.3729,   1
  2281,'DALTON      ', 110.0000,1,     0.000,     0.000,   9,   1,1.06273,  -4.0538,   1
  2301,'DUNFIRTH    ', 110.0000,1,     0.000,     0.000,   8,   1,1.04251,  -5.0507,   2
  2321,'DRUMKEEN    ', 110.0000,1,     0.000,     0.000,   9,   1,1.04410,  -2.4187,   1
  2361,'ENNIS       ', 110.0000,1,     0.000,     0.000,   4,   1,1.03355,  -1.4294,   1
  2481,'FASS EAS    ', 110.0000,1,     0.000,     0.000,   2,   2,1.03128,  -7.0807,   2
  2491,'FASS WES    ', 110.0000,1,     0.000,     0.000,   2,   2,1.03156,  -7.0653,   2
  2521,'FLAGFORD    ', 110.0000,1,     0.000,     0.000,   9,   1,1.06359,  -3.2192,   1
  2522,'FLAGFORD    ', 220.0000,1,     0.000,     0.000,   9,   7,1.05978,  -0.7927,   1
  2531,'FINNSTOW    ', 110.0000,1,     0.000,     0.000,   1,   1,1.05843,  -4.3334,   1
  2532,'FINNSTOW    ', 220.0000,1,     0.000,     0.000,   2,   1,1.06959,  -2.3462,   1
  2541,'FRN ST A    ', 110.0000,1,     0.000,     0.000,   1,   2,1.04861,  -6.1757,   2
  2551,'FRN ST B    ', 110.0000,1,     0.000,     0.000,   1,   2,1.06153,  -4.9231,   2
  2561,'FIN_URBA    ', 110.0000,1,     0.000,     0.000,   2,   2,1.04300,  -4.7568,   1
  2562,'FINGLAS     ', 220.0000,1,     0.000,     0.000,   2,   7,1.07500,  -0.5971,   1
  2571,'FIN_RURA    ', 110.0000,1,     0.000,     0.000,   2,   2,1.07167,  -3.0134,   1
  2581,'FIN_SUBU    ', 110.0000,1,     0.000,     0.000,   2,   1,1.04864,  -3.9730,   1
  2591,'FIN_OPEN    ', 110.0000,1,     0.000,     0.000,   2,   1,1.07500,  -0.5971,   2
  2671,'GARVAGH     ', 110.0000,1,     0.000,     0.000,   9,   1,1.07161,  -2.2217,   4
  2681,'GILRA       ', 110.0000,1,     0.000,     0.000,   9,   3,1.06484,  -3.5138,   2
  2701,'GLASMORE    ', 110.0000,1,     0.000,     0.000,   1,   2,1.06001,  -3.7933,   2
  2721,'GRIFFINR    ', 110.0000,1,     0.000,     0.000,   2,   2,1.04875,  -5.1205,   2
  2731,'GLANLEE     ', 110.0000,1,     0.000,     0.000,   7,   5,1.07137,   2.6704,   4
  2741,'GREAT IS    ', 110.0000,1,     0.000,     0.000,   6,   1,1.01783,  -7.0546,   1
  2742,'GREAT IS    ', 220.0000,1,     0.000,     0.000,   6,   7,1.03549,  -4.5473,   1
  2761,'GRANGE      ', 110.0000,1,     0.000,     0.000,   1,   2,1.07069,  -3.0692,   2
  2771,'GARROW      ', 110.0000,1,     0.000,     0.000,   7,   1,1.07239,   2.4718,   7
  2781,'GALWAY      ', 110.0000,1,     0.000,     0.000,   9,   1,1.05996,  -0.9115,   1
  2801,'GOLAGH      ', 110.0000,1,     0.000,     0.000,   9,   1,1.04647,  -2.6326,   4
  2821,'GORTAWEE    ', 110.0000,1,     0.000,     0.000,   9,   1,1.05428,  -6.2826,   1
  2841,'GORMAN      ', 110.0000,1,     0.000,     0.000,  10,   1,1.03016,  -5.8855,   1
  2842,'GORMAN      ', 220.0000,1,     0.000,     0.000,  10,   1,1.04746,  -2.9859,   1
  2852,'GLANAGOW    ', 220.0000,1,     0.000,     0.000,   3,   1,1.07535,   3.1752,   1
  2861,'GRANGE C    ', 110.0000,1,     0.000,     0.000,   1,   1,1.05813,  -4.3495,   2
  2881,'GLENLARA    ', 110.0000,1,     0.000,     0.000,   3,   1,1.00605,  -0.5550,   2
  2941,'HAROLDS     ', 110.0000,1,     0.000,     0.000,   1,   2,1.04893,  -6.1643,   2
  2951,'HEUSTON     ', 110.0000,1,     0.000,     0.000,   1,   1,1.06192,  -4.9013,   1
  2962,'HUNTSTOW    ', 220.0000,1,     0.000,     0.000,   2,   1,1.07532,  -0.5132,   4
  2972,'HUNTSTOW    ', 220.0000,1,     0.000,     0.000,   2,   1,1.07474,  -0.0758,   4
  2981,'HARNETTS    ', 110.0000,1,     0.000,     0.000,   3,   1,1.05491,   0.4569,   2
  3061,'INISCARR    ', 110.0000,1,     0.000,     0.000,   3,   1,1.04954,  -0.3403,   1
  3081,'INCH_CIT    ', 110.0000,1,     0.000,     0.000,   1,   2,1.06258,  -4.8506,   2
  3082,'INCHICOR    ', 220.0000,1,     0.000,     0.000,   2,   2,1.07347,  -2.4385,   1
  3091,'INCH_COU    ', 110.0000,1,     0.000,     0.000,   1,   1,1.06007,  -4.2118,   2
  3101,'IKERRIN     ', 110.0000,1,     0.000,     0.000,   5,   1,1.02421,  -6.8684,   2
  3122,'IRISHTOW    ', 220.0000,1,     0.000,     0.000,   2,   1,1.07500,  -1.6903,   1
  3201,'KNOCKRAH    ', 110.0000,1,     0.000,     0.000,   3,   1,1.04767,   0.0546,   1
  3202,'KNOCKRAH    ', 220.0000,1,     0.000,     0.000,   3,   7,1.06536,   7.5145,   1
  3211,'KNOCKRAH    ', 110.0000,1,     0.000,     0.000,   3,   1,1.06536,   7.5145,   1
  3212,'KNOCKRAH    ', 220.0000,1,     0.000,     0.000,   3,   1,1.06126,   1.0783,   1
  3221,'KILBARRY    ', 110.0000,1,     0.000,     0.000,   3,   1,1.04021,  -0.7329,   1
  3241,'KILTEEL     ', 110.0000,1,     0.000,     0.000,   8,   1,1.03907,  -6.5355,   2
  3261,'KILKENNY    ', 110.0000,1,     0.000,     0.000,   6,   1,0.99327,  -9.4062,   1
  3281,'KILLONAN    ', 110.0000,1,     0.000,     0.000,   7,   1,1.04569,   0.7957,   1
  3282,'KILLONAN    ', 220.0000,1,     0.000,     0.000,   7,   7,1.04906,   3.8522,   1
  3301,'KNOCKERA    ', 110.0000,1,     0.000,     0.000,   7,   1,1.05560,   2.0533,   1
  3321,'KNOCKUMB    ', 110.0000,1,     0.000,     0.000,  10,   3,1.02317,  -6.3060,   5
  3341,'KELLIS      ', 110.0000,1,     0.000,     0.000,   6,   1,1.03559,  -6.8901,   1
  3342,'KELLIS      ', 220.0000,1,     0.000,     0.000,   6,   1,1.03692,  -4.0551,   1
  3361,'KILTOY      ', 110.0000,1,     0.000,     0.000,   9,   3,1.03962,  -2.7738,   5
  3381,'KINNEGAD    ', 110.0000,1,     0.000,     0.000,   8,   1,1.03941,  -5.4507,   1
  3401,'KILLOTER    ', 110.0000,1,     0.000,     0.000,   5,   1,1.01282,  -7.2287,   1
  3421,'KILMORE     ', 110.0000,1,     0.000,     0.000,   1,   1,1.07162,  -3.0488,   2
  3431,'KILMAHUD    ', 110.0000,1,     0.000,     0.000,   1,   1,1.05785,  -4.3662,   1
  3441,'KILMURRY    ', 110.0000,1,     0.000,     0.000,   6,   1,1.01113,  -7.5497,   1
  3451,'KENTSTOW    ', 110.0000,1,     0.000,     0.000,  10,   1,1.02344,  -6.2343,   1
  3501,'LANESBOR    ', 110.0000,1,     0.000,     0.000,   9,   1,1.07500,  -2.7766,   1
  3521,'LOUTH       ', 110.0000,1,     0.000,     0.000,  10,   1,1.06784,  -4.7126,   1
  3522,'LOUTH       ', 220.0000,1,     0.000,     0.000,  10,   7,1.04325,  -2.1685,   1
  3541,'LIMERICK    ', 110.0000,1,     0.000,     0.000,   7,   1,1.03867,   0.7367,   1
  3561,'LISDRUM     ', 110.0000,1,     0.000,     0.000,  10,   1,1.06730,  -7.2138,   1
  3572,'LONGPOIN    ', 220.0000,1,     0.000,     0.000,   3,   1,1.07500,   9.7454,   1
  3581,'LETTERKE    ', 110.0000,1,     0.000,     0.000,   9,   1,1.03961,  -2.7735,   1
  3601,'LIBERTY     ', 110.0000,1,     0.000,     0.000,   3,   1,1.04135,  -0.8352,   2
  3611,'LIBERTY     ', 110.0000,1,     0.000,     0.000,   3,   1,1.04151,  -0.8260,   2
  3621,'LISHEEN     ', 110.0000,1,     0.000,     0.000,   5,   1,1.01376,  -9.1044,   5
  3641,'LODGEWOO    ', 110.0000,1,     0.000,     0.000,   6,   1,1.05007,  -5.4641,   1
  3642,'LODGEWOO    ', 220.0000,1,     0.000,     0.000,   6,   1,1.04537,  -4.5954,   1
  3751,'MISERY H    ', 110.0000,1,     0.000,     0.000,   1,   1,1.04960,  -6.1172,   2
  3761,'MACETOWN    ', 110.0000,1,     0.000,     0.000,   1,   2,1.04773,  -4.0135,   1
  3772,'CAVAN       ', 220.0000,1,     0.000,     0.000,  10,   1,1.04414,  -0.6922,   1
  3774,'CAVAN       ', 380.0000,1,     0.000,     0.000,  10,   1,1.03423,   1.5889,   1
  3781,'MCDERMOT    ', 110.0000,1,     0.000,     0.000,   1,   2,1.03876,  -5.0182,   2
  3801,'MIDLETON    ', 110.0000,1,     0.000,     0.000,   3,   1,1.04079,  -0.2091,   1
  3821,'MEATH HI    ', 110.0000,1,     0.000,     0.000,  10,   1,1.04245,  -5.5681,   2
  3841,'MAYNOOTH    ', 110.0000,1,     0.000,     0.000,   2,   2,1.05090,  -4.9714,   1
  3842,'MAYNOOTH    ', 220.0000,1,     0.000,     0.000,   2,   7,1.06547,  -2.4764,   1
  3851,'MAYNOOTH    ', 110.0000,1,     0.000,     0.000,   2,   2,1.05055,  -4.1889,   1
  3852,'MAYNOOTH    ', 220.0000,1,     0.000,     0.000,   2,   2,1.06861,  -1.7954,   1
  3861,'MILLTOWN    ', 110.0000,1,     0.000,     0.000,   1,   2,1.05046,  -6.0648,   2
  3871,'MILLTOWN    ', 110.0000,1,     0.000,     0.000,   1,   2,1.06016,  -5.0663,   2
...
0 / END OF BUS DATA, BEGIN LOAD DATA
    10,'LD',1,   1,   1,   106.770,    40.250,     0.000,     0.000,     0.000,     0.000,   2
    11,'LD',1,   1,   1,    50.600,    17.260,     0.000,     0.000,     0.000,     0.000,   2
    12,'LD',1,   1,   1,    43.040,    23.310,     0.000,     0.000,     0.000,     0.000,   2
    13,'LD',1,   1,   1,    58.930,    20.040,     0.000,     0.000,     0.000,     0.000,   2
    14,'LD',1,   1,   1,    64.220,    23.110,     0.000,     0.000,     0.000,     0.000,   2
    15,'LD',1,   1,   1,    70.040,    17.470,     0.000,     0.000,     0.000,     0.000,   2
  1041,'LD',1,   3,   1,     1.980,     1.060,     0.000,     0.000,     0.000,     0.000,   2
  1101,'DM',1,   5,   2,    11.000,     3.840,     0.000,     0.000,     0.000,     0.000,   5
  1101,'MI',0,   5,   2,     5.620,     1.680,     0.000,     0.000,     0.000,     0.000,   5
  3621,'DM',1,   5,   2,    19.000,     6.200,     0.000,     0.000,     0.000,     0.000,   5
  4341,'DM',1,   3,   2,     0.280,     0.100,     0.000,     0.000,     0.000,     0.000,   5
 10204,'LD',1,   4,   1,     0.850,    -2.640,     0.000,     0.000,     0.000,     0.000,   2
 10205,'LD',1,   4,   1,    63.430,    26.030,     0.000,     0.000,     0.000,     0.000,   2
 10471,'HL',0,   3,   1,    11.990,     4.310,     0.000,     0.000,     0.000,     0.000,   3
 10475,'HL',0,   3,   1,     0.300,     0.100,     0.000,     0.000,     0.000,     0.000,   3
 10602,'LD',1,   9,   1,     4.660,     1.300,     0.000,     0.000,     0.000,     0.000,   2
 10801,'LD',1,   7,   1,     4.560,     1.490,     0.000,     0.000,     0.000,     0.000,   2
 10901,'LD',1,   1,   1,     6.830,     2.220,     0.000,     0.000,     0.000,     0.000,   2
 11201,'LD',1,   6,   1,     2.330,     0.630,     0.000,     0.000,     0.000,     0.000,   2
 11204,'LD',1,   6,   1,    39.230,    13.460,     0.000,     0.000,     0.000,     0.000,   2
 11404,'LD',1,   9,   1,    72.680,    29.860,     0.000,     0.000,     0.000,     0.000,   2
 12001,'LD',1,   1,   1,    13.470,     3.960,     0.000,     0.000,     0.000,     0.000,   2
 12202,'LD',1,   8,   1,    19.770,     6.500,     0.000,     0.000,     0.000,     0.000,   2
 12402,'LD',1,   7,   1,    10.570,     3.170,     0.000,     0.000,     0.000,     0.000,   2
 12702,'DM',1,  10,   2,     6.000,     2.000,     0.000,     0.000,     0.000,     0.000,   5
 12702,'LD',1,  10,   1,    15.860,     4.230,     0.000,     0.000,     0.000,     0.000,   2
 12804,'LD',1,   3,   1,     9.910,     5.950,     0.000,     0.000,     0.000,     0.000,   2
 13001,'LD',1,   6,   1,    10.570,     1.240,     0.000,     0.000,     0.000,     0.000,   2
 13204,'LD',1,   8,   1,    25.640,    15.880,     0.000,     0.000,     0.000,     0.000,   2
 13302,'LD',1,   6,   1,     6.340,     1.900,     0.000,     0.000,     0.000,     0.000,   2
 13404,'LD',1,   9,   1,     9.290,     7.040,     0.000,     0.000,     0.000,     0.000,   2
 13501,'DM',1,   8,   2,    19.000,     5.900,     0.000,     0.000,     0.000,     0.000,   5
 13601,'DM',1,   5,   2,     5.900,     1.900,     0.000,     0.000,     0.000,     0.000,   5
 13601,'MI',0,   5,   2,     1.220,     0.360,     0.000,     0.000,     0.000,     0.000,   5
 13604,'LD',1,   5,   1,     8.850,     3.830,     0.000,     0.000,     0.000,     0.000,   2
 13701,'DM',1,   4,   2,    12.200,     4.000,     0.000,     0.000,     0.000,     0.000,   5
 13701,'LD',1,   4,   1,    12.050,     3.700,     0.000,     0.000,     0.000,     0.000,   2
 13802,'LD',1,   3,   1,    31.650,    10.400,     0.000,     0.000,     0.000,     0.000,   2
 13804,'LD',1,   3,   1,    19.950,     2.930,     0.000,     0.000,     0.000,     0.000,   2
 14002,'LD',1,   9,   1,     4.900,     1.600,     0.000,     0.000,     0.000,     0.000,   2
 14204,'LD',1,   1,   1,    27.510,    11.300,     0.000,     0.000,     0.000,     0.000,   2
 14401,'LD',1,   3,   1,     5.110,     1.680,     0.000,     0.000,     0.000,     0.000,   2
 14404,'LD',1,   3,   1,    32.770,     8.950,     0.000,     0.000,     0.000,     0.000,   2
 14604,'LD',1,   5,   1,    37.000,     6.610,     0.000,     0.000,     0.000,     0.000,   2
 14804,'LD',1,   5,   1,    47.700,    14.540,     0.000,     0.000,     0.000,     0.000,   2
 15001,'DM',1,   3,   2,     4.200,     1.400,     0.000,     0.000,     0.000,     0.000,   5
 15001,'MI',0,   3,   2,     1.970,     0.590,     0.000,     0.000,     0.000,     0.000,   5
 15402,'LD',1,   6,   1,    16.600,     5.450,     0.000,     0.000,     0.000,     0.000,   2
 15704,'LD',1,   9,   1,    15.710,     5.210,     0.000,     0.000,     0.000,     0.000,   2
 15801,'LD',1,   1,   1,    15.090,     4.960,     0.000,     0.000,     0.000,     0.000,   2
 16202,'LD',1,   3,   1,    16.840,     5.350,     0.000,     0.000,     0.000,     0.000,   2
 16604,'LD',1,   9,   1,    29.800,    19.640,     0.000,     0.000,     0.000,     0.000,   2
 16901,'LD',1,   1,   1,     6.030,     2.110,     0.000,     0.000,     0.000,     0.000,   2
 17004,'LD',1,   9,   1,    17.560,     6.360,     0.000,     0.000,     0.000,     0.000,   2
 17204,'DM',1,   5,   2,     2.900,     1.000,     0.000,     0.000,     0.000,     0.000,   5
 17204,'LD',1,   5,   1,    28.940,    10.040,     0.000,     0.000,     0.000,     0.000,   2
 17404,'LD',1,   2,   1,    57.400,    17.630,     0.000,     0.000,     0.000,     0.000,   2
 17802,'DM',1,   7,   2,    44.000,    14.500,     0.000,     0.000,     0.000,     0.000,   5
 17802,'MI',0,   7,   2,     5.000,     1.500,     0.000,     0.000,     0.000,     0.000,   5
 18004,'LD',1,   1,   1,    67.920,    24.450,     0.000,     0.000,     0.000,     0.000,   2
 18204,'LD',1,   9,   1,    21.990,     6.010,     0.000,     0.000,     0.000,     0.000,   2
 18304,'LD',1,   9,   1,     5.290,     1.060,     0.000,     0.000,     0.000,     0.000,   2
 18402,'LD',1,   6,   1,    -1.040,    -0.220,     0.000,     0.000,     0.000,     0.000,   2
 18404,'LD',1,   6,   1,    18.470,     9.490,     0.000,     0.000,     0.000,     0.000,   2
 18501,'LD',1,   2,   1,    28.120,     9.240,     0.000,     0.000,     0.000,     0.000,   2
 18604,'LD',1,   9,   1,    31.580,    13.210,     0.000,     0.000,     0.000,     0.000,   2
 18701,'DM',1,   2,   2,    22.800,     7.500,     0.000,     0.000,     0.000,     0.000,   5
 18701,'LD',1,   2,   1,    19.820,     7.000,     0.000,     0.000,     0.000,     0.000,   2
 18804,'LD',1,   3,   1,    18.370,     9.250,     0.000,     0.000,     0.000,     0.000,   2
 19004,'LD',1,   6,   1,    46.940,    21.410,     0.000,     0.000,     0.000,     0.000,   2
 19204,'LD',1,   3,   1,    19.620,     6.450,     0.000,     0.000,     0.000,     0.000,   2
 19471,'HL',1,   8,   2,    11.700,     4.210,     0.000,     0.000,     0.000,     0.000,   4
 19504,'LD',1,   9,   1,    23.260,     6.340,     0.000,     0.000,     0.000,     0.000,   2
 19601,'LD',1,   3,   1,    27.660,     9.090,     0.000,     0.000,     0.000,     0.000,   2
 20201,'LD',1,   1,   1,    20.690,     6.790,     0.000,     0.000,     0.000,     0.000,   2
 20301,'DM',1,   6,   2,    25.000,     8.190,     0.000,     0.000,     0.000,     0.000,   5
 21004,'LD',1,  10,   1,    42.020,    21.950,     0.000,     0.000,     0.000,     0.000,   2
 21204,'LD',1,   4,   1,    32.600,    10.580,     0.000,     0.000,     0.000,     0.000,   2
 21404,'LD',1,   5,   1,    31.710,    10.570,     0.000,     0.000,     0.000,     0.000,   2
 21604,'LD',1,   5,   1,    34.890,    10.970,     0.000,     0.000,     0.000,     0.000,   2
 21804,'LD',1,  10,   1,    73.600,    27.750,     0.000,     0.000,     0.000,     0.000,   2
 22204,'LD',1,   3,   1,    33.170,    11.760,     0.000,     0.000,     0.000,     0.000,   2
 22404,'LD',1,   5,   1,    11.230,     5.020,     0.000,     0.000,     0.000,     0.000,   2
 22501,'LD',1,   1,   1,     7.160,     2.270,     0.000,     0.000,     0.000,     0.000,   2
 22671,'HL',0,   8,   1,     0.300,     0.100,     0.000,     0.000,     0.000,     0.000,   1
 22672,'HL',0,   8,   1,     0.300,     0.100,     0.000,     0.000,     0.000,     0.000,   1
 22804,'LD',1,   9,   1,    25.110,     5.390,     0.000,     0.000,     0.000,     0.000,   2
 23001,'LD',1,   8,   1,     4.430,     1.450,     0.000,     0.000,     0.000,     0.000,   2
 23601,'LD',1,   4,   1,    13.000,     4.330,     0.000,     0.000,     0.000,     0.000,   2
 23604,'LD',1,   4,   1,    36.820,    12.980,     0.000,     0.000,     0.000,     0.000,   2
 24804,'LD',1,   2,   1,    52.990,    16.250,     0.000,     0.000,     0.000,     0.000,   2
 25604,'LD',1,   2,   1,    67.930,    20.960,     0.000,     0.000,     0.000,     0.000,   2
 26802,'DM',1,   9,   2,    11.870,     3.900,     0.000,     0.000,     0.000,     0.000,   5
 27004,'LD',1,   1,   1,    38.160,    13.430,     0.000,     0.000,     0.000,     0.000,   2
 27204,'LD',1,   2,   1,    63.040,    14.970,     0.000,     0.000,     0.000,     0.000,   2
 27404,'LD',1,   6,   1,    14.800,     8.190,     0.000,     0.000,     0.000,     0.000,   2
 27471,'HL',0,   6,   1,     3.000,     1.080,     0.000,     0.000,     0.000,     0.000,   3
 27472,'HL',0,   6,   1,     3.000,     1.080,     0.000,     0.000,     0.000,     0.000,   3
 27473,'HL',0,   6,   1,     7.990,     2.870,     0.000,     0.000,     0.000,     0.000,   3
 27604,'LD',1,   1,   1,    46.410,    22.040,     0.000,     0.000,     0.000,     0.000,   2
 27801,'LD',1,   9,   1,    28.280,    13.480,     0.000,     0.000,     0.000,     0.000,   2
 27804,'LD',1,   9,   1,    65.270,    24.450,     0.000,     0.000,     0.000,     0.000,   2
 28201,'DM',1,   9,   2,    17.000,     5.600,     0.000,     0.000,     0.000,     0.000,   5
 28201,'MI',0,   9,   2,     3.890,     1.160,     0.000,     0.000,     0.000,     0.000,   5
 28204,'LD',1,   9,   1,    10.570,     3.170,     0.000,     0.000,     0.000,     0.000,   2
 28571,'HL',1,   3,   1,     8.710,     3.130,     0.000,     0.000,     0.000,     0.000,   1
 28601,'DM',1,   1,   2,     5.890,     1.900,     0.000,     0.000,     0.000,     0.000,   5
 28601,'LD',1,   1,   1,    -5.220,    -1.690,     0.000,     0.000,     0.000,     0.000,   2
 28604,'LD',1,   1,   1,    53.390,    16.120,     0.000,     0.000,     0.000,     0.000,   2
 28804,'LD',1,   3,   1,    16.390,     6.870,     0.000,     0.000,     0.000,     0.000,   2
 29401,'LD',1,   1,   1,    25.090,     8.250,     0.000,     0.000,     0.000,     0.000,   2
 29501,'LD',1,   1,   1,     6.030,     1.900,     0.000,     0.000,     0.000,     0.000,   2
 29672,'HL',1,   2,   2,     6.080,     2.190,     0.000,     0.000,     0.000,     0.000,   4
 29801,'LD',1,   3,   1,     9.420,     1.060,     0.000,     0.000,     0.000,     0.000,   2
 30804,'LD',1,   1,   1,    67.710,    27.670,     0.000,     0.000,     0.000,     0.000,   2
 31004,'LD',1,   5,   1,    25.620,     9.780,     0.000,     0.000,     0.000,     0.000,   2
 31271,'HL',1,   2,   2,     6.730,     2.420,     0.000,     0.000,     0.000,     0.000,   4
 32201,'LD',1,   3,   1,     8.070,     2.640,     0.000,     0.000,     0.000,     0.000,   2
 32204,'LD',1,   3,   1,    79.290,    18.780,     0.000,     0.000,     0.000,     0.000,   2
 32404,'LD',1,   8,   1,    43.650,    22.370,     0.000,     0.000,     0.000,     0.000,   2
 32604,'LD',1,   6,   1,    65.540,    38.020,     0.000,     0.000,     0.000,     0.000,   2
 33004,'LD',1,   7,   1,    37.000,    13.810,     0.000,     0.000,     0.000,     0.000,   2
 33201,'DM',1,  10,   2,    24.220,     8.000,     0.000,     0.000,     0.000,     0.000,   5
 33801,'DM',1,   8,   2,    11.730,     3.900,     0.000,     0.000,     0.000,     0.000,   5
 34001,'LD',1,   5,   1,     3.440,     0.540,     0.000,     0.000,     0.000,     0.000,   2
 34201,'DM',1,   1,   2,    22.420,     7.400,     0.000,     0.000,     0.000,     0.000,   5
 34201,'LD',1,   1,   1,     7.070,     0.930,     0.000,     0.000,     0.000,     0.000,   2
 34301,'DM',1,   1,   2,    23.750,     7.800,     0.000,     0.000,     0.000,     0.000,   5
 34404,'LD',1,   6,   1,    20.090,     6.550,     0.000,     0.000,     0.000,     0.000,   2
 34501,'DM',1,  10,   2,     8.800,     2.900,     0.000,     0.000,     0.000,     0.000,   5
 34501,'LD',1,  10,   1,    11.730,     3.170,     0.000,     0.000,     0.000,     0.000,   2
 35004,'LD',1,   9,   1,    13.210,     0.000,     0.000,     0.000,     0.000,     0.000,   2
 35074,'HL',1,   9,   1,     9.000,     3.240,     0.000,     0.000,     0.000,     0.000,   3
 35404,'LD',1,   7,   1,    66.060,    38.670,     0.000,     0.000,     0.000,     0.000,   2
 35604,'LD',1,  10,   1,    34.490,    13.470,     0.000,     0.000,     0.000,     0.000,   2
 35771,'HL',1,   3,   1,    10.800,     3.880,     0.000,     0.000,     0.000,     0.000,   1
 35804,'LD',1,   9,   1,    52.960,    17.740,     0.000,     0.000,     0.000,     0.000,   2
 36001,'LD',1,   3,   1,    19.980,     6.550,     0.000,     0.000,     0.000,     0.000,   2
 37501,'DM',1,   1,   2,     6.180,     2.000,     0.000,     0.000,     0.000,     0.000,   5
 37501,'LD',1,   1,   1,     6.830,     2.240,     0.000,     0.000,     0.000,     0.000,   2
 37601,'LD',1,   2,   1,    33.060,    10.690,     0.000,     0.000,     0.000,     0.000,   2
 37602,'DM',1,   2,   2,     5.000,     1.600,     0.000,     0.000,     0.000,     0.000,   5
 37602,'MI',0,   2,   2,     5.440,     1.630,     0.000,     0.000,     0.000,     0.000,   5
 38001,'LD',1,   3,   1,    10.230,     3.360,     0.000,     0.000,     0.000,     0.000,   2
 38004,'LD',1,   3,   1,    28.150,    13.880,     0.000,     0.000,     0.000,     0.000,   2
 38204,'LD',1,  10,   1,    40.300,    17.100,     0.000,     0.000,     0.000,     0.000,   2
 38601,'LD',1,   1,   1,     9.250,     2.640,     0.000,     0.000,     0.000,     0.000,   2
 38701,'LD',1,   1,   1,     9.250,     2.640,     0.000,     0.000,     0.000,     0.000,   2
 38804,'LD',1,   3,   1,     9.080,     5.550,     0.000,     0.000,     0.000,     0.000,   2
 39471,'HL',1,   4,   1,    18.570,     6.680,     0.000,     0.000,     0.000,     0.000,   3
 39472,'HL',1,   7,   1,    18.570,     6.680,     0.000,     0.000,     0.000,     0.000,   3
 39473,'HL',1,   4,   1,    18.570,     6.680,     0.000,     0.000,     0.000,     0.000,   3
 39601,'LD',1,   3,   1,    25.820,     8.480,     0.000,     0.000,     0.000,     0.000,   2
 39672,'HL',0,   3,   1,     3.000,     1.080,     0.000,     0.000,     0.000,     0.000,   3
 39675,'HL',0,   3,   1,     5.000,     1.800,     0.000,     0.000,     0.000,     0.000,   3
 39801,'DM',1,   7,   2,    25.650,     8.400,     0.000,     0.000,     0.000,     0.000,   5
 40001,'LD',1,   9,   1,    15.330,     4.230,     0.000,     0.000,     0.000,     0.000,   2
 40004,'LD',1,   9,   1,    31.190,    15.730,     0.000,     0.000,     0.000,     0.000,   2
 40204,'LD',1,   3,   1,    19.820,     8.350,     0.000,     0.000,     0.000,     0.000,   2
 40404,'LD',1,   9,   1,    29.200,     8.850,     0.000,     0.000,     0.000,     0.000,   2
 40601,'LD',1,  10,   1,     2.960,     0.950,     0.000,     0.000,     0.000,     0.000,   2
 40602,'DM',1,  10,   2,     7.600,     2.500,     0.000,     0.000,     0.000,     0.000,   5
 40604,'LD',1,  10,   1,    21.090,     6.340,     0.000,     0.000,     0.000,     0.000,   2
 40801,'LD',1,   8,   1,     2.510,     0.830,     0.000,     0.000,     0.000,     0.000,   2
 42004,'LD',1,   8,   1,    31.110,    14.270,     0.000,     0.000,     0.000,     0.000,   2
 42102,'DM',1,   1,   2,     7.220,     2.400,     0.000,     0.000,     0.000,     0.000,   5
 42102,'LD',1,   1,   1,    16.600,     5.450,     0.000,     0.000,     0.000,     0.000,   2
 42204,'LD',1,  10,   1,    41.260,    17.440,     0.000,     0.000,     0.000,     0.000,   2
 42604,'LD',1,   7,   1,    30.130,     9.910,     0.000,     0.000,     0.000,     0.000,   2
 42802,'DM',1,   1,   2,    26.000,     8.500,     0.000,     0.000,     0.000,     0.000,   5
 43604,'LD',1,   7,   1,    33.040,    13.210,     0.000,     0.000,     0.000,     0.000,   2
 44001,'LD',1,   1,   1,    14.660,     4.920,     0.000,     0.000,     0.000,     0.000,   2
 44671,'HL',1,   2,   1,     5.500,     1.980,     0.000,     0.000,     0.000,     0.000,   3
 44672,'HL',0,   2,   1,     5.500,     1.980,     0.000,     0.000,     0.000,     0.000,   3
 44673,'HL',0,   2,   1,    12.990,     4.670,     0.000,     0.000,     0.000,     0.000,   3
 44804,'LD',1,   8,   1,    32.600,    12.490,     0.000,     0.000,     0.000,     0.000,   2
 44901,'DM',1,   1,   2,    20.900,     6.900,     0.000,     0.000,     0.000,     0.000,   5
 44901,'LD',1,   1,   1,     8.730,     2.510,     0.000,     0.000,     0.000,     0.000,   2
 45001,'DM',1,  10,   2,    54.620,    17.100,     0.000,     0.000,     0.000,     0.000,   5
 45101,'LD',1,   1,   1,    15.860,     3.170,     0.000,     0.000,     0.000,     0.000,   2
 46210,'DM',1,   2,   2,    24.000,     7.900,     0.000,     0.000,     0.000,     0.000,   5
 46214,'DM',1,   2,   2,    26.000,     8.500,     0.000,     0.000,     0.000,     0.000,   5
 46224,'DM',1,   2,   2,    31.000,    10.190,     0.000,     0.000,     0.000,     0.000,   5
 46501,'LD',1,   1,   1,    27.450,    22.740,     0.000,     0.000,     0.000,     0.000,   2
 46804,'LD',1,   7,   1,    27.880,    12.420,     0.000,     0.000,     0.000,     0.000,   2
 47004,'LD',1,   9,   1,    37.520,    15.990,     0.000,     0.000,     0.000,     0.000,   2
 47402,'DM',1,   2,   2,    15.200,     5.000,     0.000,     0.000,     0.000,     0.000,   5
 47601,'LD',1,   3,   1,     1.980,     0.650,     0.000,     0.000,     0.000,     0.000,   2
 49474,'HL',1,   5,   1,    13.000,     4.680,     0.000,     0.000,     0.000,     0.000,   3
 49501,'LD',1,   9,   1,    10.570,     3.170,     0.000,     0.000,     0.000,     0.000,   2
 49504,'LD',1,   9,   1,    48.420,    11.630,     0.000,     0.000,     0.000,     0.000,   2
 49604,'LD',1,  10,   1,    64.900,    29.110,     0.000,     0.000,     0.000,     0.000,   2
 49701,'LD',1,   6,   1,    13.740,     3.810,     0.000,     0.000,     0.000,     0.000,   2
 49804,'LD',1,   9,   1,    53.520,    21.940,     0.000,     0.000,     0.000,     0.000,   2
 50004,'LD',1,   9,   1,    29.180,    10.850,     0.000,     0.000,     0.000,     0.000,   2
 50301,'LD',1,   1,   1,    13.740,     4.510,     0.000,     0.000,     0.000,     0.000,   2
 50573,'HL',1,   7,   2,     0.850,     0.300,     0.000,     0.000,     0.000,     0.000,   4
 50574,'HL',1,   7,   2,     0.850,     0.300,     0.000,     0.000,     0.000,     0.000,   4
 50604,'LD',1,   6,   1,    16.120,     6.070,     0.000,     0.000,     0.000,     0.000,   2
 50901,'LD',1,   7,   1,    12.690,     3.490,     0.000,     0.000,     0.000,     0.000,   2
...
0 / END OF LOAD DATA, BEGIN GENERATOR DATA
 10204,'2 ',     0.231,    -0.070,    -0.070,    -0.070,1.04000,     0,     0.895,   0.00000,   0.25400,   0.00000,   0.20000,1.00000,1,  100.0,     0.660,     0.000,   4,1.0000
 10204,'3 ',     2.625,    -0.820,    -0.820,    -0.820,1.04000,     0,     8.625,   0.00000, 999.00000,   0.00000,   0.20000,1.00000,1,  100.0,     7.500,     0.000,   2,1.0000
 10271,'1 ',    21.000,    15.000,    15.000,    -7.000,1.07500,  1021,    34.000,   0.00000,   0.26000,   0.00000,   0.00000,1.00000,1,   15.0,    21.000,     5.000,   3,1.0000
 10272,'2 ',    21.000,    15.000,    15.000,    -7.000,1.07500,  1021,    34.000,   0.00000,   0.26000,   0.00000,   0.00000,1.00000,1,   15.0,    22.000,     5.000,   3,1.0000
 10273,'3 ',    19.000,     0.000,    15.000,    -7.000,1.07500,  1021,    34.000,   0.00000,   0.26000,   0.00000,   0.00000,1.00000,0,   15.0,    19.000,     5.000,   3,1.0000
 10274,'4 ',    24.000,     0.000,    15.000,    -7.000,1.07500,  1021,    34.000,   0.00000,   0.25000,   0.00000,   0.00000,1.00000,0,   15.0,    24.000,     5.000,   3,1.0000
 10471,'1 ',   270.000,     0.000,   153.000,   -53.000,1.07500,  1042,   318.800,   0.00000,   0.26400,   0.00000,   0.00000,1.00000,0,  153.0,   270.000,    40.000,   3,1.0000
 10472,'11',    90.000,     0.000,    60.000,   -30.000,1.07500,  1072,   100.900,   0.00000,   0.14700,   0.00000,   0.00000,1.00000,0,   60.0,    90.000,    20.000,   3,1.0000
 10473,'12',    90.000,     0.000,    60.000,   -30.000,1.07500,  1052,   100.900,   0.00000,   0.14700,   0.00000,   0.00000,1.00000,0,   60.0,    90.000,    20.000,   3,1.0000
 10474,'14',    90.000,     0.000,    60.000,   -30.000,1.07500,  1072,   100.900,   0.00000,   0.14700,   0.00000,   0.00000,1.00000,0,   60.0,    90.000,    20.000,   3,1.0000
 10475,'5 ',    52.300,     0.000,    32.600,   -22.700,1.07500,  1041,    62.000,   0.00000,   0.25400,   0.00000,   0.00000,1.00000,0,   32.6,    52.300,     1.200,   3,1.0000
 10602,'1 ',     0.420,    -0.130,    -0.130,    -0.130,1.04000,     0,     1.380,   0.00000,   0.25400,   0.00000,   0.20000,1.00000,1,  100.0,     1.200,     0.000,   4,1.0000
 10602,'2 ',     1.680,    -0.520,    -0.520,    -0.520,1.04000,     0,     5.520,   0.00000,   0.25400,   0.00000,   0.20000,1.00000,1,  100.0,     4.800,     0.000,   4,1.0000
 10602,'3 ',     1.750,    -0.550,    -0.550,    -0.550,1.04000,     0,     5.750,   0.00000,   0.25400,   0.00000,   0.20000,1.00000,1,  100.0,     5.000,     0.000,   4,1.0000
 10602,'5 ',     1.890,    -1.770,    -1.770,    -2.300,1.04000,     0,     7.050,   0.00000,   0.25400,   0.00000,   0.05640,1.00000,1,  100.0,     5.400,     0.000,   2,1.0000
 11204,'1 ',     8.820,    -2.750,    -2.750,    -2.750,1.04000,     0,    29.000,   0.00000,   0.25400,   0.00000,   0.20000,1.00000,1,  100.0,    25.200,     0.000,   2,1.0000
 11371,'1 ',    23.800,    -7.168,    15.890,   -15.890,1.07500,  1131,    71.875,   0.00000,   0.25400,   0.00000,   0.00000,1.00000,1,  100.0,    68.000,     0.000,   4,1.0000
 11402,'1 ',     1.487,    -1.400,    -1.400,    -1.810,1.04000,     0,     4.475,   0.00000,   0.25400,   0.00000,   0.06000,1.00000,1,  100.0,     4.250,     0.000,   1,1.0000
 12371,'1 ',    14.700,     9.700,     9.700,    -9.700,1.07500,  1231,    42.000,   0.00000,   0.25400,   0.00000,   0.00000,1.00000,1,  100.0,    42.000,     0.000,   4,1.0000
 12571,'1 ',     6.807,     4.490,     4.490,    -4.490,1.07500,  1251,    23.925,   0.00000,   0.25400,   0.00000,   0.00000,1.00000,1,  100.0,    19.450,     0.000,   4,1.0000
 12804,'1 ',     2.975,    -0.930,    -0.930,    -0.930,1.04000,     0,     8.950,   0.00000,   0.25400,   0.00000,   0.20000,1.00000,1,  100.0,     8.500,     0.000,   2,1.0000
 12804,'2 ',     6.842,    -2.140,    -2.140,    -2.140,1.04000,     0,    20.585,   0.00000,   0.25400,   0.00000,   0.20000,1.00000,1,  100.0,    19.550,     0.000,   2,1.0000
 13302,'1 ',     5.057,    -2.074,     2.030,    -3.360,1.00000,     0,    15.215,   0.00000,   0.25400,   0.00000,   0.06000,1.00000,1,  100.0,    14.450,     0.000,   2,1.0000
 13302,'2 ',     1.750,    -0.718,     0.700,    -1.190,1.00000,     0,     5.520,   0.00000,   0.25400,   0.00000,   0.00000,1.00000,1,  100.0,     5.000,     0.000,   2,1.0000
 13312,'1 ',     1.400,    -1.310,    -1.310,    -1.700,1.07500,  1331,     4.700,   0.00000,   0.25400,   0.00000,   0.56400,1.00000,1,  100.0,     4.000,     0.000,   1,1.0000
 13312,'2 ',     1.400,    -1.310,    -1.310,    -1.700,1.07500,  1331,     4.030,   0.00000,   0.25400,   0.00000,   0.06717,1.00000,1,  100.0,     4.000,     0.000,   1,1.0000
 13312,'3 ',     1.260,    -1.180,    -1.180,    -1.530,1.07500,  1331,     3.600,   0.00000,   0.25400,   0.00000,   0.05400,1.00000,1,  100.0,     3.600,     0.000,   1,1.0000
 13312,'4 ',     5.180,     3.430,     3.430,    -3.430,1.07500,  1331,    17.350,   0.00000,   0.25400,   0.00000,   0.05627,1.00000,1,  100.0,    14.800,     0.000,   1,1.0000
 13404,'1 ',     0.231,    -0.070,    -0.070,    -0.070,1.04000,     0,     0.759,   0.00000,   0.25400,   0.00000,   0.20000,1.00000,1,  100.0,     0.660,     0.000,   4,1.0000
 13404,'2 ',     0.893,    -0.280,    -0.280,    -0.280,1.04000,     0,     2.685,   0.00000,   0.25400,   0.00000,   0.20000,1.00000,1,  100.0,     2.550,     0.000,   2,1.0000
 13404,'3 ',     4.165,    -1.300,    -1.300,    -1.300,1.04000,     0,    13.685,   0.00000,   0.25400,   0.00000,   0.20000,1.00000,1,  100.0,    11.900,     0.000,   2,1.0000
 13404,'4 ',     5.250,    -1.640,    -1.640,    -1.640,1.04000,     0,    17.170,   0.00000,   0.25400,   0.00000,   0.20000,1.00000,1,  100.0,    15.000,     0.000,   2,1.0000
 13404,'5 ',     2.100,    -0.660,    -0.660,    -0.660,1.04000,     0,     6.900,   0.00000,   0.25400,   0.00000,   0.20000,1.00000,1,  100.0,     6.000,     0.000,   2,1.0000
 13404,'6 ',     2.678,    -0.840,    -0.840,    -0.840,1.04000,     0,     8.055,   0.00000,   0.25400,   0.00000,   0.20000,1.00000,1,  100.0,     7.650,     0.000,   2,1.0000
 14002,'3 ',     2.257,    -0.700,    -0.700,    -0.700,1.04000,     0,     7.418,   0.00000,   0.25400,   0.00000,   0.10000,1.00000,1,  100.0,     6.450,     0.000,   3,1.0000
 14404,'1 ',     1.575,    -0.490,    -0.490,    -0.490,1.04000,     0,     5.151,   0.00000,   0.25400,   0.00000,   0.20000,1.00000,1,  100.0,     4.500,     0.000,   2,1.0000
 14604,'1 ',     4.800,     0.000,     1.000,    -1.000,1.05000,     0,     7.000,   0.00000,   0.14800,   0.00000,   0.10000,1.00000,0,    1.0,     4.800,     0.000,   5,1.0000
 14804,'1 ',     0.595,    -0.190,    -0.190,    -0.190,1.04000,     0,     1.790,   0.00000,   0.25400,   0.00000,   0.20000,1.00000,1,  100.0,     1.700,     0.000,   4,1.0000
 16371,'1 ',     1.190,    -0.770,     0.490,    -0.770,1.01500, 16302,     3.580,   0.00000,   0.25400,   0.00000,   0.10000,1.00000,1,  100.0,     3.400,     0.000,   1,1.0000
 16372,'2 ',     1.190,    -0.770,     0.490,    -0.770,1.00000,     0,     3.580,   0.00000,   0.25400,   0.00000,   0.10000,1.00000,1,  100.0,     3.400,     0.000,   1,1.0000
 16373,'3 ',     2.380,    -1.084,     0.980,    -1.610,1.01500, 16302,     7.160,   0.00000,   0.25400,   0.00000,   0.10000,1.00000,1,  100.0,     6.800,     0.000,   1,1.0000
 16374,'4 ',     2.660,    -1.084,     1.760,    -1.760,1.01500, 16302,     8.055,   0.00000,   0.25400,   0.00000,   0.10000,1.00000,1,  100.0,     7.600,     0.000,   1,1.0000
 16375,'5 ',     1.487,    -0.980,     0.980,    -0.980,1.01500, 16302,     4.475,   0.00000,   0.25400,   0.00000,   0.10000,1.00000,1,  100.0,     4.250,     0.000,   1,1.0000
 16376,'6 ',     1.732,    -0.540,    -0.540,    -0.540,1.00000,     0,     5.370,   0.00000,   0.25400,   0.00000,   0.10000,1.00000,1,  100.0,     4.950,     0.000,   4,1.0000
 16377,'1 ',     3.150,     2.100,     2.100,    -2.100,1.07500,  1631,     9.570,   0.00000,   0.25400,   0.00000,   0.00000,1.00000,1,  100.0,     9.000,     0.000,   1,1.0000
 16378,'1 ',     0.559,    -0.530,    -0.530,    -0.680,1.04000,     0,     1.790,   0.00000,   0.25400,   0.00000,   0.00000,1.00000,1,  100.0,     1.598,     0.000,   1,1.0000
 16571,'1 ',    13.230,     8.770,     8.770,    -8.770,1.07500,  1651,    39.000,   0.00000,   0.25400,   0.00000,   0.00000,1.00000,1,  100.0,    37.800,     0.000,   4,1.0000
 16602,'1 ',     1.190,    -0.370,    -0.370,    -0.370,1.04000,     0,     3.580,   0.00000,   0.25400,   0.00000,   0.06000,1.00000,1,  100.0,     3.400,     0.000,   4,1.0000
 16602,'2 ',     0.595,    -0.560,    -0.560,    -0.730,1.04000,     0,     1.790,   0.00000,   0.25400,   0.00000,   0.06000,1.00000,1,  100.0,     1.700,     0.000,   1,1.0000
 16604,'2 ',     6.545,    -2.040,    -2.040,    -2.040,1.00000,     0,    19.690,   0.00000,   0.25400,   0.00000,   0.20000,1.00000,1,  100.0,    18.700,     0.000,   4,1.0000
 16604,'3 ',     0.735,    -0.230,    -0.230,    -0.230,1.00000,     0,     2.300,   0.00000,   0.25400,   0.00000,   0.00000,1.00000,1,  100.0,     2.100,     0.000,   2,1.0000
 16612,'1 ',     2.975,    -2.790,    -2.790,    -3.620,1.04000,     0,     8.950,   0.00000,   0.25400,   0.00000,   0.06000,1.00000,1,  100.0,     8.500,     0.000,   1,1.0000
 16873,'3 ',     2.000,     7.000,     7.000,    -1.000,1.07500,  1681,    11.500,   0.00000,   0.31700,   0.00000,   0.00000,1.00000,1,    7.0,     8.000,     2.000,   3,1.0000
 17004,'5 ',     0.693,    -0.220,    -0.220,    -0.220,1.04000,     0,     3.100,   0.00000,   0.25400,   0.00000,   0.20000,1.00000,1,  100.0,     1.980,     0.000,   4,1.0000
 17004,'6 ',     0.385,    -0.120,    -0.120,    -0.120,1.04000,     0,     1.500,   0.00000,   0.25400,   0.00000,   0.20000,1.00000,1,  100.0,     1.100,     0.000,   4,1.0000
 17004,'7 ',     1.190,    -0.370,    -0.370,    -0.370,1.04000,     0,     3.580,   0.00000,   0.25400,   0.00000,   0.20000,1.00000,1,  100.0,     3.400,     0.000,   2,1.0000
 17073,'3 ',    22.500,    -6.807,     7.000,   -10.000,1.05000,  1701,    30.000,   0.00000,   0.25400,   0.00000,   0.00000,1.00000,1,    7.0,    22.500,     5.000,   3,1.0000
 17074,'4 ',    22.500,     0.000,     7.000,   -10.000,1.05000,  1701,    30.000,   0.00000,   0.25400,   0.00000,   0.00000,1.00000,0,    7.0,    22.500,     5.000,   3,1.0000
 17671,'1 ',    10.000,    -3.000,     7.000,    -3.000,1.05000,  1701,    12.500,   0.00000,   0.19000,   0.00000,   0.00000,1.00000,1,    7.0,    10.000,     3.000,   3,1.0000
 17672,'2 ',    10.000,     0.000,     7.000,    -3.000,1.05000,  1701,    12.500,   0.00000,   0.19000,   0.00000,   0.00000,1.00000,0,    7.0,    10.000,     3.000,   3,1.0000
 17771,'1 ',    14.429,     9.590,     9.590,    -9.590,1.07500,  2771,    42.925,   0.00000,   0.25400,   0.00000,   0.00000,1.00000,1,  100.0,    41.225,     0.000,   4,1.0000
 18404,'1 ',     1.747,    -0.550,    -0.550,    -0.550,1.04000,     0,     5.739,   0.00000,   0.25400,   0.00000,   0.20000,1.00000,1,  100.0,     4.990,     0.000,   2,1.0000
 18802,'1 ',     1.050,    -0.330,    -0.330,    -0.330,1.04000,     0,     3.125,   0.00000,   0.25400,   0.00000,   0.07962,1.00000,1,  100.0,     3.000,     0.000,   1,1.0000
 19071,'1 ',     0.893,    -0.280,    -0.280,    -0.280,1.04000,     0,     2.685,   0.00000,   0.25400,   0.00000,   0.06000,1.00000,1,  100.0,     2.550,     0.000,   4,1.0000
 19071,'2 ',     0.595,    -0.560,    -0.560,    -0.730,1.04000,     0,     1.790,   0.00000,   0.25400,   0.00000,   0.06000,1.00000,1,  100.0,     1.700,     0.000,   4,1.0000
 19072,'1 ',     1.750,    -0.550,    -0.550,    -0.550,1.04000,     0,     7.050,   0.00000,   0.25400,   0.00000,   0.05640,1.00000,1,  100.0,     4.999,     0.000,   4,1.0000
 19072,'2 ',     1.575,    -0.490,    -0.490,    -0.490,1.04000,     0,     4.700,   0.00000,   0.25400,   0.00000,   0.05647,1.00000,1,  100.0,     4.500,     0.000,   4,1.0000
 19073,'1 ',     7.350,    -6.900,    -6.900,    -8.950,1.04000,     0,    21.875,   0.00000,   0.25400,   0.00000,   0.07962,1.00000,1,  100.0,    21.000,     0.000,   4,1.0000
 19371,'1 ',    12.180,    -5.360,    -5.360,    -5.360,1.07500,  1931,    36.500,   0.00000,   0.25400,   0.00000,   0.00000,1.00000,1,  100.0,    34.800,     0.000,   4,1.0000
 19471,'1 ',   130.000,    75.000,    75.000,   -50.000,1.07500,  1941,   153.000,   0.00000,   0.18800,   0.00000,   0.00000,1.00000,1,   75.0,   130.000,    60.000,   4,1.0000
 19771,'1 ',    14.875,     5.950,     5.950,    -9.940,1.07500,  1971,    45.000,   0.00000,   0.25400,   0.00000,   0.00000,1.00000,1,  100.0,    42.500,     0.000,   4,1.0000
 19902,'1 ',    14.490,     9.660,     9.660,    -9.660,1.07500,  1991,    41.400,   0.00000,   0.25400,   0.00000,   0.00000,1.00000,1,  100.0,    41.400,     0.000,   1,1.0000
 21004,'1 ',     2.625,    -0.820,    -0.820,    -0.820,1.04000,     0,     8.625,   0.00000,   0.25400,   0.00000,   0.20000,1.00000,1,  100.0,     7.500,     0.000,   4,1.0000
 21004,'2 ',     0.175,    -0.050,    -0.050,    -0.050,1.04000,     0,     0.895,   0.00000,   0.25400,   0.00000,   0.20000,1.00000,1,  100.0,     0.500,     0.000,   2,1.0000
 21402,'1 ',     0.595,    -0.560,    -0.560,    -0.730,1.04000,     0,     1.790,   0.00000,   0.25400,   0.00000,   0.06000,1.00000,1,  100.0,     1.700,     0.000,   1,1.0000
 21802,'1 ',     0.595,    -0.190,    -0.190,    -0.190,1.04000,     0,     1.790,   0.00000,   0.25400,   0.00000,   0.06000,1.00000,1,  100.0,     1.700,     0.000,   4,1.0000
 21802,'2 ',     1.050,    -0.990,    -0.990,    -1.280,1.04000,     0,     3.125,   0.00000,   0.25400,   0.00000,   0.07962,1.00000,1,  100.0,     3.000,     0.000,   1,1.0000
 22204,'1 ',     1.617,    -0.500,    -0.500,    -0.500,1.04000,     0,     5.313,   0.00000,   0.25400,   0.00000,   0.20000,1.00000,1,  100.0,     4.620,     0.000,   3,1.0000
 22204,'2 ',     2.079,    -0.650,    -0.650,    -0.650,1.04000,     0,     6.831,   0.00000,   0.25400,   0.00000,   0.20000,1.00000,1,  100.0,     5.940,     0.000,   3,1.0000
 22204,'3 ',     2.082,    -0.650,    -0.650,    -0.650,1.04000,     0,     6.868,   0.00000,   0.25400,   0.00000,   0.20000,1.00000,1,  100.0,     5.950,     0.000,   4,1.0000
 22204,'4 ',     1.487,    -0.460,    -0.460,    -0.460,1.04000,     0,     5.000,   0.00000,   0.20000,   0.00000,   0.20000,1.00000,1,  100.0,     4.250,     0.000,   4,1.0000
 22371,'1 ',    20.825,     8.330,     8.330,   -13.880,1.07500,  2231,    62.650,   0.00000,   0.25400,   0.00000,   0.00000,1.00000,1,  100.0,    59.500,     0.000,   4,1.0000
 22404,'1 ',     0.893,    -0.280,    -0.280,    -0.280,1.04000,     0,     2.685,   0.00000,   0.20000,   0.00000,   0.20000,1.00000,1,  100.0,     2.550,     0.000,   4,1.0000
 22404,'2 ',     1.487,    -0.460,    -0.460,    -0.460,1.04000,     0,     5.000,   0.00000,   0.20000,   0.00000,   0.20000,1.00000,1,  100.0,     4.250,     0.000,   4,1.0000
 22671,'1 ',    52.100,     0.000,    32.600,   -22.700,1.07500,  2261,    62.000,   0.00000,   0.25400,   0.00000,   0.00000,1.00000,0,   32.6,    52.100,     1.200,   3,1.0000
 22672,'2 ',    52.100,     0.000,    32.600,   -22.700,1.07500,  2261,    62.000,   0.00000,   0.25400,   0.00000,   0.00000,1.00000,0,   32.6,    52.100,     1.200,   3,1.0000
 22802,'1 ',     0.893,    -0.840,    -0.840,    -1.090,1.04000,     0,     2.685,   0.00000,   0.25400,   0.00000,   0.06000,1.00000,1,  100.0,     2.550,     0.000,   1,1.0000
 26702,'1 ',    11.034,     7.350,     7.350,    -7.350,1.07500,  2671,    32.500,   0.00000,   0.25400,   0.00000,   0.00000,1.00000,1,  100.0,    31.525,     0.000,   4,1.0000
 26703,'1 ',     9.345,     6.230,     6.230,    -6.230,1.07500,  2671,    26.700,   0.00000,   0.25400,   0.00000,   0.00000,1.00000,1,  100.0,    26.700,     0.000,   4,1.0000
 27204,'5 ',     4.000,     0.000,     1.000,    -1.000,1.04000,     0,     5.000,   0.00000,   0.30000,   0.00000,   0.10000,1.00000,0,    1.0,     4.000,     0.000,   3,1.0000
 27371,'1 ',     4.480,     1.820,     1.820,    -3.010,1.07500,  2731,    15.215,   0.00000,   0.25400,   0.00000,   0.00000,1.00000,1,  100.0,    12.800,     0.000,   4,1.0000
 27372,'2 ',     5.950,     2.380,     2.380,    -3.990,1.07500,  2731,    18.750,   0.00000,   0.25400,   0.00000,   0.00000,1.00000,1,  100.0,    17.000,     0.000,   4,1.0000
 27402,'1 ',     1.487,    -1.400,    -1.400,    -1.810,1.04000,     0,     4.475,   0.00000,   0.25400,   0.00000,   0.06000,1.00000,1,  100.0,     4.250,     0.000,   1,1.0000
 27471,'1 ',    57.000,     0.000,    42.000,    -3.000,1.07500,  2741,    75.000,   0.00000,   0.20300,   0.00000,   0.00000,1.00000,0,   42.0,    57.000,    25.000,   3,1.0000
 27472,'2 ',    57.000,     0.000,    40.000,    -3.000,1.07500,  2741,    75.000,   0.00000,   0.20300,   0.00000,   0.00000,1.00000,0,   40.0,    57.000,    25.000,   3,1.0000
 27473,'3 ',   116.000,     0.000,    82.000,   -48.000,1.07500,  2742,   150.000,   0.00000,   0.18500,   0.00000,   0.00000,1.00000,0,   82.0,   116.000,    30.000,   3,1.0000
 27804,'1 ',     1.155,    -0.360,    -0.360,    -0.360,1.04000,     0,     3.795,   0.00000,   0.25400,   0.00000,   0.20000,1.00000,1,  100.0,     3.300,     0.000,   4,1.0000
 27804,'2 ',     0.236,    -0.070,    -0.070,    -0.070,1.04000,     0,     0.776,   0.00000,   0.25400,   0.00000,   0.20000,1.00000,1,  100.0,     0.675,     0.000,   2,1.0000
 28002,'1 ',     5.250,    -2.170,    -2.170,    -2.170,1.00000,     0,    17.250,   0.00000,   0.25400,   0.00000,   0.10000,1.00000,1,  100.0,    15.000,     0.000,   4,1.0000
 28571,'1 ',   400.000,    69.023,   282.100,  -196.800,1.07500,  1062,   535.500,   0.00000,   0.24500,   0.00000,   0.00000,1.00000,1,  282.1,   450.470,   110.100,   4,1.0000
 28804,'2 ',     8.855,    -2.760,    -2.760,    -2.760,1.04000,     0,    28.578,   0.00000,   0.20000,   0.00000,   0.20000,1.00000,1,  100.0,    25.300,     0.000,   4,1.0000
 28814,'1 ',     3.675,    -1.150,    -1.150,    -1.150,1.04000,     0,    12.019,   0.00000,   0.25400,   0.00000,   0.20000,1.00000,1,  100.0,    10.500,     0.000,   2,1.0000
 29671,'ST',    90.000,    12.310,    90.000,   -47.000,1.07500,  2562,   150.000,   0.00000,   0.18800,   0.00000,   0.00000,1.00000,1,   90.0,   120.000,    40.000,   4,1.0000
 29672,'CT',   200.000,    23.662,   173.000,  -106.000,1.07500,  2562,   288.000,   0.00000,   0.17900,   0.00000,   0.00000,1.00000,1,  173.0,   230.000,   138.000,   4,1.0000
 29673,'2 ',   380.000,    34.056,   249.000,  -100.000,1.07500,  2562,   473.000,   0.00500,   0.25600,   0.00000,   0.00000,1.00000,1,  249.0,   400.000,   257.000,   4,1.0000
 30671,'1 ',     4.000,    13.000,    13.000,    -4.000,1.07500,  3061,    21.400,   0.00000,   0.20300,   0.00000,   0.00000,1.00000,1,   13.0,    15.000,     4.000,   3,1.0000
 30671,'2 ',     1.000,     3.000,     3.000,    -1.000,1.07500,  3061,     5.700,   0.00000,   0.17800,   0.00000,   0.00000,1.00000,1,   13.0,     4.000,     1.000,   3,1.0000
 31002,'1 ',     0.893,    -0.280,    -0.280,    -0.280,1.04000,     0,     2.685,   0.00000,   0.25400,   0.00000,   0.06000,1.00000,1,  100.0,     2.550,     0.000,   1,1.0000
 31002,'2 ',     0.298,    -0.280,    -0.280,    -0.360,1.04000,     0,     0.895,   0.00000,   0.25400,   0.00000,   0.06000,1.00000,1,  100.0,     0.850,     0.000,   1,1.0000
 31004,'1 ',     0.893,    -0.280,    -0.280,    -0.280,1.04000,     0,     2.685,   0.00000,   0.25400,   0.00000,   0.20000,1.00000,1,  100.0,     2.550,     0.000,   2,1.0000
 31271,'1 ',   400.000,    85.667,   200.000,  -114.000,1.07500,  3122,   500.000,   0.00000,   0.27000,   0.00000,   0.00000,1.00000,1,  200.0,   409.900,   163.000,   4,1.0000
 32404,'1 ',     4.100,     0.000,     1.000,    -1.000,1.04000,     0,     4.800,   0.00000,   0.25000,   0.00000,   0.06000,1.00000,0,    1.0,     4.100,     0.000,   2,1.0000
 32604,'1 ',     7.500,     0.000,     1.000,    -1.000,1.05000,     0,     8.500,   0.00000,   0.14800,   0.00000,   0.10000,1.00000,0,    1.0,     7.500,     0.000,   5,1.0000
 33004,'1 ',     3.272,    -1.020,    -1.020,    -1.020,1.04000,     0,     9.845,   0.00000,   0.25400,   0.00000,   0.20000,1.00000,1,  100.0,     9.350,     0.000,   2,1.0000
 35002,'1 ',     1.750,    -1.640,    -1.640,    -2.130,1.04000,     0,     6.045,   0.00000,   0.25400,   0.00000,   0.06717,1.00000,1,  100.0,     5.000,     0.000,   2,1.0000
 35074,'4 ',   100.000,    57.959,    60.000,   -20.000,1.07500,  3501,   121.100,   0.00500,   0.23000,   0.00000,   0.00000,1.00000,1,   60.0,   100.000,    25.000,   3,1.0000
 35771,'1 ',   400.000,    93.949,   250.000,   -80.000,1.07500,  3572,   500.000,   0.00000,   0.22500,   0.00000,   0.00000,1.00000,1,  250.0,   442.960,   222.000,   1,1.0000
 35802,'1 ',     0.893,    -0.280,    -0.280,    -0.280,1.04000,     0,     2.685,   0.00000,   0.25400,   0.00000,   0.06000,1.00000,1,  100.0,     2.550,     0.000,   4,1.0000
 35802,'2 ',     0.893,    -0.280,    -0.280,    -0.280,1.04000,     0,     2.685,   0.00000,   0.25400,   0.00000,   0.06000,1.00000,1,  100.0,     2.550,     0.000,   4,1.0000
 35802,'3 ',     1.190,    -1.120,    -1.120,    -1.450,1.04000,     0,     3.600,   0.00000,   0.25400,   0.00000,   0.05400,1.00000,1,  100.0,     3.400,     0.000,   1,1.0000
 35804,'1 ',     5.250,    -1.640,    -1.640,    -1.640,1.04000,     0,    17.250,   0.00000,   0.25400,   0.00000,   0.20000,1.00000,1,  100.0,    15.000,     0.000,   4,1.0000
 35804,'2 ',     1.743,    -0.540,    -0.540,    -0.540,1.04000,     0,     5.727,   0.00000,   0.25400,   0.00000,   0.20000,1.00000,1,  100.0,     4.980,     0.000,   4,1.0000
 35804,'3 ',     4.158,    -1.300,    -1.300,    -1.300,1.04000,     0,    13.662,   0.00000,   0.25400,   0.00000,   0.20000,1.00000,1,  100.0,    11.880,     0.000,   4,1.0000
 35804,'6 ',     1.785,    -0.560,    -0.560,    -0.560,1.04000,     0,     5.370,   0.00000,   0.25400,   0.00000,   0.20000,1.00000,1,  100.0,     5.100,     0.000,   2,1.0000
 38002,'1 ',     0.595,    -0.560,    -0.560,    -0.730,1.04000,     0,     1.790,   0.00000,   0.25400,   0.00000,   0.06000,1.00000,1,  100.0,     1.700,     0.000,   1,1.0000
 38204,'1 ',     3.675,    -1.150,    -1.150,    -1.150,1.04000,     0,    12.019,   0.00000,   0.25400,   0.00000,   0.20000,1.00000,1,  100.0,    10.500,     0.000,   4,1.0000
...